ieee_data/IEEE5a.dat
 08/02/98 SFA                  100.0  IEEE 5a Bus Test Case
BUS DATA FOLLOWS                            3 ITEMS
   1 Bus 1     HV  1  1  3 1.200    0.0      0.0      0.0    500.0   300.0     0.0  1.200     0.0     0.0   0.0    0.0        0
   2 Bus 2     HV  1  1  2 1.200  -4.98      0.0      0.0    500.0   300.0     0.0  1.200     0.0     0.0   0.0    0.0        0
   3 Bus 3     HV  1  1  2 1.200  -10.0      0.0      0.0    500.0   300.0     0.0  1.200     0.0     0.0   0.0    0.0        0
   4 Bus 4     HV  1  1  0 1.000  -12.0   1000.0    300.0      0.0     0.0     0.0  1.000     0.0     0.0   0.0    0.0        0
   5 Bus 5     HV  1  1  0 1.000  -15.0    500.0    200.0      0.0     0.0     0.0  1.000     0.0     0.0   0.0    0.0        0
-999 
BRANCH DATA FOLLOWS                         4 ITEMS
   1    4  1  1 1 0  0.00000   0.10000     0.0000     0     0     0    0 0  0.0       0.0 0.0    0.0     0.0    0.0   0.0
   2    4  1  1 1 0  0.00000   0.10000     0.0000     0     0     0    0 0  0.0       0.0 0.0    0.0     0.0    0.0   0.0
   3    5  1  1 1 0  0.00000   0.10000     0.0000     0     0     0    0 0  0.0       0.0 0.0    0.0     0.0    0.0   0.0   
   4    5  1  1 1 0  0.00000   0.10000     0.0000     0     0     0    0 0  0.0       0.0 0.0    0.0     0.0    0.0   0.0
-999
LOSS ZONES FOLLOWS                     1 ITEMS
  1 IEEE 5a BUS
-99
INTERCHANGE DATA FOLLOWS                 1 ITEMS
 1    4 Bus 2     HV    0.0  999.99  IEEE5a  IEEE 5a Bus Test Case
-9
TIE LINES FOLLOWS                     0 ITEMS
-999
END OF DATA
